Version 4
SHEET 1 896 680
WIRE -560 -416 -560 -448
WIRE -384 -416 -384 -448
WIRE -208 -416 -208 -448
WIRE 240 -416 240 -448
WIRE 432 -416 432 -448
WIRE -560 -304 -560 -336
WIRE -384 -304 -384 -336
WIRE -208 -304 -208 -336
WIRE 240 -304 240 -336
WIRE 432 -304 432 -336
WIRE -80 -176 -80 -192
WIRE -16 -160 -16 -208
WIRE -112 -112 -192 -112
WIRE 96 -112 16 -112
WIRE -112 -48 -192 -48
WIRE 96 -48 32 -48
WIRE -80 48 -80 32
WIRE -16 80 -16 16
FLAG 96 -112 Q
FLAG -192 -112 D
FLAG -16 -208 Vdd
FLAG -16 80 0
FLAG -560 -304 0
FLAG -560 -448 Vdd
FLAG -192 -48 Clk
FLAG 96 -48 _Q
FLAG -384 -304 0
FLAG -384 -448 D
FLAG -208 -304 0
FLAG -208 -448 Clk
FLAG 240 -304 0
FLAG 240 -448 rst
FLAG -80 48 rst
FLAG 432 -304 0
FLAG 432 -448 set
FLAG -80 -192 set
SYMBOL voltage -560 -432 R0
WINDOW 123 0 0 Left 0
WINDOW 39 0 0 Left 0
SYMATTR InstName V1
SYMATTR Value 5V
SYMBOL voltage -384 -432 R0
WINDOW 123 0 0 Left 0
WINDOW 39 0 0 Left 0
WINDOW 3 -72 -91 Left 2
SYMATTR Value PULSE(0 5 0 5n 5n 20m 40m 5)
SYMATTR InstName V4
SYMBOL voltage -208 -432 R0
WINDOW 123 0 0 Left 0
WINDOW 39 0 0 Left 0
SYMATTR InstName V5
SYMATTR Value PULSE(0 5 0 5n 5n 40m 80m)
SYMBOL voltage 240 -432 R0
WINDOW 123 0 0 Left 0
WINDOW 39 0 0 Left 0
WINDOW 3 -72 -91 Left 2
SYMATTR Value PULSE(5 0 0 5n 5n 5m 10m 1)
SYMATTR InstName V2
SYMBOL voltage 432 -432 R0
WINDOW 123 0 0 Left 0
WINDOW 39 0 0 Left 0
WINDOW 3 -84 222 Left 2
SYMATTR Value 5
SYMATTR InstName V3
SYMBOL dff_p_w_asy_rst_set -112 16 R0
SYMATTR InstName X1
TEXT -592 -256 Left 2 ;Power
TEXT -608 40 Left 2 !.tran 320m
TEXT -408 -248 Left 2 ;Data
TEXT -232 -248 Left 2 ;Clk
TEXT 216 -248 Left 2 ;rst
TEXT 408 -248 Left 2 ;set
RECTANGLE Normal -496 -496 -608 -224 2
RECTANGLE Normal -320 -496 -464 -224 2
RECTANGLE Normal -144 -496 -288 -224 2
RECTANGLE Normal 304 -496 160 -224 2
RECTANGLE Normal 496 -496 352 -224 2
