Version 4
SHEET 1 880 680
WIRE -640 -992 -640 -1024
WIRE -544 -992 -640 -992
WIRE -448 -992 -448 -1024
WIRE -352 -992 -448 -992
WIRE -256 -992 -256 -1024
WIRE -160 -992 -256 -992
WIRE -544 -976 -544 -992
WIRE -352 -976 -352 -992
WIRE -160 -976 -160 -992
WIRE -576 -928 -592 -928
WIRE -496 -928 -512 -928
WIRE -384 -928 -400 -928
WIRE -304 -928 -320 -928
WIRE -192 -928 -208 -928
WIRE -112 -928 -128 -928
WIRE -16 -832 -16 -848
WIRE -544 -816 -544 -880
WIRE -32 -816 -544 -816
WIRE -352 -800 -352 -880
WIRE -32 -800 -352 -800
WIRE 208 -800 48 -800
WIRE -160 -784 -160 -880
WIRE -32 -784 -160 -784
WIRE -16 -752 -16 -768
WIRE -16 -640 -16 -656
WIRE -544 -624 -544 -816
WIRE -32 -624 -544 -624
WIRE -448 -608 -448 -992
WIRE -32 -608 -448 -608
WIRE 208 -608 48 -608
WIRE -160 -592 -160 -784
WIRE -32 -592 -160 -592
WIRE -16 -560 -16 -576
WIRE -16 -448 -16 -464
WIRE -640 -432 -640 -992
WIRE -32 -432 -640 -432
WIRE -352 -416 -352 -800
WIRE -32 -416 -352 -416
WIRE 208 -416 48 -416
WIRE -160 -400 -160 -592
WIRE -32 -400 -160 -400
WIRE -16 -368 -16 -384
WIRE -16 -256 -16 -272
WIRE -640 -240 -640 -432
WIRE -32 -240 -640 -240
WIRE -448 -224 -448 -608
WIRE -32 -224 -448 -224
WIRE 208 -224 48 -224
WIRE -160 -208 -160 -400
WIRE -32 -208 -160 -208
WIRE -16 -176 -16 -192
WIRE -640 -128 -640 -240
WIRE -544 -128 -544 -624
WIRE -448 -128 -448 -224
WIRE -352 -128 -352 -416
WIRE -256 -128 -256 -992
WIRE -160 -128 -160 -208
FLAG -16 -752 Vss
FLAG -16 -848 Vdd
FLAG -592 -928 Vss
FLAG -496 -928 Vdd
FLAG -400 -928 Vss
FLAG -304 -928 Vdd
FLAG -208 -928 Vss
FLAG -112 -928 Vdd
FLAG -640 -1024 A
FLAG -448 -1024 B
FLAG -256 -1024 EN
FLAG -16 -560 Vss
FLAG -16 -656 Vdd
FLAG -16 -368 Vss
FLAG -16 -464 Vdd
FLAG -16 -176 Vss
FLAG -16 -272 Vdd
FLAG 208 -224 D3
FLAG 208 -416 D2
FLAG 208 -608 D1
FLAG 208 -800 D0
SYMBOL not -576 -960 R90
SYMATTR InstName U1
SYMBOL not -384 -960 R90
SYMATTR InstName U2
SYMBOL not -192 -960 R90
SYMATTR InstName U3
SYMBOL nand3 -32 -768 R0
SYMATTR InstName U4
SYMBOL nand3 -32 -576 R0
SYMATTR InstName U5
SYMBOL nand3 -32 -384 R0
SYMATTR InstName U6
SYMBOL nand3 -32 -192 R0
SYMATTR InstName U7
