Version 4
SHEET 1 880 680
WIRE -288 -48 -288 -64
WIRE -144 -48 -144 -64
WIRE -304 -32 -368 -32
WIRE -208 -16 -224 -16
WIRE -192 -16 -208 -16
WIRE -80 -16 -96 -16
WIRE -304 0 -368 0
WIRE -208 0 -208 -16
WIRE -288 32 -288 16
WIRE -144 32 -144 16
FLAG -80 -16 Y
FLAG -368 -32 A
FLAG -288 32 Vss
FLAG -288 -64 Vdd
FLAG -368 0 B
FLAG -144 32 Vss
FLAG -144 -64 Vdd
FLAG -208 64 Vss
SYMBOL cap -192 0 M0
SYMATTR InstName C1
SYMATTR Value 1p
SYMBOL nand -304 16 R0
SYMATTR InstName X1
SYMBOL not -176 16 R0
SYMATTR InstName X2
