Version 4
SHEET 1 880 680
WIRE -208 -384 -432 -384
WIRE -96 -384 -208 -384
WIRE 16 -384 -96 -384
WIRE 240 -384 16 -384
WIRE -432 -368 -432 -384
WIRE -208 -368 -208 -384
WIRE 16 -368 16 -384
WIRE 240 -368 240 -384
WIRE -496 -320 -752 -320
WIRE -272 -320 -368 -320
WIRE -48 -320 -144 -320
WIRE 176 -320 80 -320
WIRE 560 -320 304 -320
WIRE -496 -256 -512 -256
WIRE -272 -256 -288 -256
WIRE -48 -256 -64 -256
WIRE 176 -256 160 -256
WIRE -432 -192 -432 -208
WIRE -208 -192 -208 -208
WIRE -208 -192 -432 -192
WIRE -96 -192 -208 -192
WIRE 16 -192 16 -208
WIRE 16 -192 -96 -192
WIRE 240 -192 240 -208
WIRE 240 -192 16 -192
WIRE -512 -144 -512 -256
WIRE -512 -144 -752 -144
WIRE -288 -144 -288 -256
WIRE -288 -144 -512 -144
WIRE -64 -144 -64 -256
WIRE -64 -144 -288 -144
WIRE 160 -144 160 -256
WIRE 160 -144 -64 -144
FLAG -752 -144 Clk
FLAG -752 -320 IN
FLAG 560 -320 OUT
FLAG -96 -384 Vdd
FLAG -96 -192 Vss
SYMBOL dff_p -496 -208 R0
SYMATTR InstName X1
SYMBOL dff_p -272 -208 R0
SYMATTR InstName X2
SYMBOL dff_p -48 -208 R0
SYMATTR InstName X3
SYMBOL dff_p 176 -208 R0
SYMATTR InstName X4
