Version 4
SHEET 1 2596 908
WIRE 912 -144 912 -192
WIRE 912 32 912 -16
WIRE 880 48 832 48
WIRE 912 80 912 64
WIRE 928 80 928 64
WIRE 928 80 912 80
WIRE 912 112 912 80
FLAG 832 48 in
FLAG 912 112 Vss
FLAG 912 -192 Vdd
SYMBOL nmos 880 48 R0
SYMATTR InstName U2
SYMBOL memristor 912 -80 R0
SYMATTR InstName U1
TEXT 640 -320 Left 2 ;https://ieeexplore.ieee.org/stamp/stamp.jsp?tp=&arnumber=10048417
