Version 4
SHEET 1 3888 680
WIRE 1824 16 1536 16
WIRE 1824 48 1824 16
WIRE 1536 96 1536 16
WIRE 1952 128 1824 128
WIRE 1536 224 1536 176
WIRE 1712 320 1712 272
FLAG 1824 224 0
FLAG 1792 176 in
FLAG 1952 128 out
FLAG 1536 224 0
FLAG 1712 320 0
FLAG 1712 192 in
SYMBOL 1M1T 1808 208 R0
SYMATTR InstName X1
SYMBOL res 1808 32 R0
SYMATTR InstName R1
SYMATTR Value 1k
SYMBOL voltage 1536 80 R0
WINDOW 123 0 0 Left 0
WINDOW 39 0 0 Left 0
SYMATTR InstName V1
SYMATTR Value 5
SYMBOL voltage 1712 176 R0
WINDOW 123 0 0 Left 0
WINDOW 39 0 0 Left 0
SYMATTR InstName V2
SYMATTR Value PULSE(0 5 0 1p 1p 10m 20m)
TEXT 1504 344 Left 2 !.tran 20m
