* CMOS\NMOS\nmos.asc
* 
* 1 G
* 2 D
* 3 S
* 
.subckt nmos 1 2 3
M1 2 1 3 $G_Vss NMOS
.model NMOS NMOS
.model PMOS PMOS
.lib C:\Users\pavlos\AppData\Local\LTspice\lib\cmp\standard.mos
.backanno
.ends nmos
