Version 4
SHEET 1 880 680
WIRE -80 -96 -80 -128
WIRE 0 -48 -80 -48
WIRE -128 -16 -176 -16
WIRE 0 16 0 -48
WIRE -80 48 -80 0
FLAG -176 -16 G
FLAG -80 48 S
FLAG -80 -128 D
FLAG 0 16 $G_Vss
SYMBOL nmos4 -128 -96 R0
SYMATTR InstName M1
