Version 4
SHEET 1 880 732
WIRE 512 -160 416 -160
WIRE 512 -128 512 -160
WIRE -64 -112 -128 -112
WIRE 416 -80 416 -160
WIRE -64 -64 -64 -112
WIRE -128 -16 -128 -112
WIRE 416 32 416 0
WIRE 416 32 272 32
WIRE -128 64 -128 48
WIRE -128 64 -336 64
WIRE 64 64 -128 64
WIRE 416 64 416 32
WIRE -336 112 -336 64
WIRE 272 128 272 32
WIRE 272 128 -32 128
WIRE 64 192 64 64
WIRE -32 208 -32 128
WIRE 16 208 -32 208
WIRE 416 224 416 144
WIRE 416 224 128 224
WIRE -336 240 -336 192
WIRE -336 240 -448 240
WIRE 16 240 -128 240
WIRE -448 272 -448 240
WIRE -336 272 -336 240
WIRE -128 272 -128 240
WIRE -128 384 -128 352
WIRE -336 464 -336 352
WIRE -128 464 -336 464
WIRE 64 464 64 256
WIRE 64 464 -128 464
WIRE -128 480 -128 464
WIRE -128 592 -128 544
FLAG -128 384 0
FLAG -448 272 0
FLAG -128 592 0
FLAG -64 -64 0
FLAG 512 -128 0
FLAG 416 224 out
SYMBOL voltage -336 96 R0
WINDOW 123 0 0 Left 0
WINDOW 39 0 0 Left 0
SYMATTR InstName V1
SYMATTR Value 15
SYMBOL voltage -128 256 R0
WINDOW 123 0 0 Left 0
WINDOW 39 0 0 Left 0
SYMATTR InstName V2
SYMATTR Value SINE(0 0.5 10k)
SYMBOL voltage -336 256 R0
WINDOW 123 0 0 Left 0
WINDOW 39 0 0 Left 0
SYMATTR InstName V3
SYMATTR Value 15
SYMBOL cap -144 -16 R0
SYMATTR InstName C1
SYMATTR Value 0.1µ
SYMBOL cap -144 480 R0
SYMATTR InstName C2
SYMATTR Value 0.1µ
SYMBOL res 432 16 R180
WINDOW 0 36 76 Left 2
WINDOW 3 36 40 Left 2
SYMATTR InstName R1
SYMATTR Value 4.7k
SYMATTR SpiceLine tol=5
SYMBOL res 432 160 R180
WINDOW 0 36 76 Left 2
WINDOW 3 36 40 Left 2
SYMATTR InstName R2
SYMATTR Value 4.7k
SYMATTR SpiceLine tol=5
SYMBOL 741 32 224 R0
SYMATTR InstName U1
TEXT -336 656 Left 2 !.lib C:\\Users\\pavlos\\AppData\\Local\\LTspice\\local\\my\\schematics\\OpAmp741\\741.lib
TEXT -332 716 Left 2 !.tran 0 1 0.1m 0.1m
