Version 4
SHEET 1 1824 680
WIRE 224 -368 64 -368
WIRE 224 -336 224 -368
WIRE 64 -320 64 -368
FLAG 64 -240 0
FLAG 224 -208 0
FLAG 192 -272 out
SYMBOL voltage 64 -336 R0
SYMATTR InstName V1
SYMATTR Value 5
SYMBOL potentionmeter 208 -320 R90
WINDOW 0 -3 -79 VRight 2
WINDOW 39 20 -244 VRight 2
SYMATTR InstName X1
SYMATTR SpiceLine percent=50 R=10k
TEXT 32 -200 Left 2 !.tran 10m
