Version 4
SHEET 1 896 680
WIRE -560 -416 -560 -448
WIRE -384 -416 -384 -448
WIRE -208 -416 -208 -448
WIRE 240 -416 240 -448
WIRE -560 -304 -560 -336
WIRE -384 -304 -384 -336
WIRE -208 -304 -208 -336
WIRE 240 -304 240 -336
WIRE -48 -160 -48 -208
WIRE -112 -128 -192 -128
WIRE 96 -128 16 -128
WIRE -112 -64 -192 -64
WIRE 96 -64 32 -64
WIRE -80 32 -80 16
WIRE -16 64 -16 0
FLAG 96 -128 Q
FLAG -192 -128 Data
FLAG -48 -208 Vdd
FLAG -16 64 0
FLAG -560 -304 0
FLAG -560 -448 Vdd
FLAG -192 -64 Clk
FLAG 96 -64 _Q
FLAG -384 -304 0
FLAG -384 -448 Data
FLAG -208 -304 0
FLAG -208 -448 Clk
FLAG 240 -304 0
FLAG 240 -448 rst
FLAG -80 32 rst
SYMBOL voltage -560 -432 R0
WINDOW 123 0 0 Left 0
WINDOW 39 0 0 Left 0
SYMATTR InstName V1
SYMATTR Value 5V
SYMBOL voltage -384 -432 R0
WINDOW 123 0 0 Left 0
WINDOW 39 0 0 Left 0
WINDOW 3 -72 -91 Left 2
SYMATTR Value PULSE(0 5 0 1p 1p 10m 20m 5)
SYMATTR InstName V4
SYMBOL voltage -208 -432 R0
WINDOW 123 0 0 Left 0
WINDOW 39 0 0 Left 0
SYMATTR InstName V5
SYMATTR Value PULSE(0 5 0 1p 1p 5m 10m)
SYMBOL voltage 240 -432 R0
WINDOW 123 0 0 Left 0
WINDOW 39 0 0 Left 0
WINDOW 3 -72 -91 Left 2
SYMATTR Value PULSE(5 0 0 1p 1p 5m 10m 1)
SYMATTR InstName V2
SYMBOL dff_p_w_asy_rst -112 0 R0
SYMATTR InstName X1
TEXT -592 -256 Left 2 ;Power
TEXT -608 40 Left 2 !.tran 320m
TEXT -408 -248 Left 2 ;Data
TEXT -232 -248 Left 2 ;Clk
TEXT 216 -248 Left 2 ;rst
RECTANGLE Normal -496 -496 -608 -224 2
RECTANGLE Normal -320 -496 -464 -224 2
RECTANGLE Normal -144 -496 -288 -224 2
RECTANGLE Normal 304 -496 160 -224 2
