Version 4
SHEET 1 880 680
WIRE -688 -416 -688 -448
WIRE -560 -416 -560 -448
WIRE -384 -416 -384 -448
WIRE -208 -416 -208 -448
WIRE -688 -304 -688 -336
WIRE -560 -304 -560 -336
WIRE -384 -304 -384 -336
WIRE -208 -304 -208 -336
WIRE 224 -272 224 -320
WIRE 336 -256 288 -256
WIRE 336 -224 288 -224
WIRE 160 -192 80 -192
WIRE 336 -192 288 -192
WIRE 336 -160 288 -160
WIRE 336 -128 288 -128
WIRE 336 -96 288 -96
WIRE 160 -80 80 -80
WIRE 336 -64 288 -64
WIRE 336 -32 288 -32
WIRE 224 48 224 -16
FLAG 80 -192 C
FLAG 224 -320 Vdd
FLAG 224 48 0
FLAG -560 -304 0
FLAG -560 -448 Vdd
FLAG -384 -304 0
FLAG -384 -448 A
FLAG 80 -80 B
FLAG -208 -304 0
FLAG -208 -448 B
FLAG -688 -304 0
FLAG -688 -448 C
FLAG 336 -32 b0
FLAG 336 -64 b1
FLAG 336 -96 b2
FLAG 336 -128 b3
FLAG 336 -160 b4
FLAG 336 -192 b5
FLAG 336 -224 b6
FLAG 336 -256 b7
SYMBOL voltage -560 -432 R0
WINDOW 123 0 0 Left 0
WINDOW 39 0 0 Left 0
SYMATTR InstName V1
SYMATTR Value 5V
SYMBOL voltage -384 -432 R0
WINDOW 123 0 0 Left 0
WINDOW 39 0 0 Left 0
WINDOW 3 -78 -82 Left 2
SYMATTR Value PULSE(0 5 0 5n 5n 20m 40m)
SYMATTR InstName V2
SYMBOL voltage -208 -432 R0
WINDOW 123 0 0 Left 0
WINDOW 39 0 0 Left 0
WINDOW 3 -83 226 Left 2
SYMATTR Value PULSE(0 5 0 5n 5n 40m 80m)
SYMATTR InstName V3
SYMBOL voltage -688 -432 R0
WINDOW 123 0 0 Left 0
WINDOW 39 0 0 Left 0
WINDOW 3 32 92 Left 2
SYMATTR Value 5
SYMATTR InstName V4
SYMBOL counter_8_bit 160 -16 R0
SYMATTR InstName U1
TEXT -592 -256 Left 2 ;Power
TEXT -408 -248 Left 2 ;A
TEXT -608 40 Left 2 !.tran 5120m
TEXT -232 -248 Left 2 ;B
TEXT -712 -248 Left 2 ;C
RECTANGLE Normal -496 -496 -608 -224 2
RECTANGLE Normal -320 -496 -464 -224 2
RECTANGLE Normal -144 -496 -288 -224 2
RECTANGLE Normal -624 -496 -768 -224 2
