Version 4
SHEET 1 880 680
WIRE -592 -1776 -592 -1808
WIRE -592 -1776 -688 -1776
WIRE -400 -1776 -400 -1808
WIRE -400 -1776 -496 -1776
WIRE -208 -1776 -208 -1808
WIRE -208 -1776 -304 -1776
WIRE -592 -1760 -592 -1776
WIRE -400 -1760 -400 -1776
WIRE -208 -1760 -208 -1776
WIRE -624 -1712 -640 -1712
WIRE -544 -1712 -560 -1712
WIRE -432 -1712 -448 -1712
WIRE -352 -1712 -368 -1712
WIRE -240 -1712 -256 -1712
WIRE -160 -1712 -176 -1712
WIRE -64 -1552 -64 -1584
WIRE -592 -1536 -592 -1664
WIRE -80 -1536 -592 -1536
WIRE -400 -1520 -400 -1664
WIRE -80 -1520 -400 -1520
WIRE 160 -1520 0 -1520
WIRE -208 -1504 -208 -1664
WIRE -80 -1504 -208 -1504
WIRE -64 -1456 -64 -1488
WIRE -64 -1328 -64 -1360
WIRE -688 -1312 -688 -1776
WIRE -80 -1312 -688 -1312
WIRE -400 -1296 -400 -1520
WIRE -80 -1296 -400 -1296
WIRE 160 -1296 0 -1296
WIRE -208 -1280 -208 -1504
WIRE -80 -1280 -208 -1280
WIRE -64 -1232 -64 -1264
WIRE -64 -1104 -64 -1136
WIRE -592 -1088 -592 -1536
WIRE -80 -1088 -592 -1088
WIRE -496 -1072 -496 -1776
WIRE -80 -1072 -496 -1072
WIRE 160 -1072 0 -1072
WIRE -208 -1056 -208 -1280
WIRE -80 -1056 -208 -1056
WIRE -64 -1008 -64 -1040
WIRE -64 -880 -64 -912
WIRE -688 -864 -688 -1312
WIRE -80 -864 -688 -864
WIRE -496 -848 -496 -1072
WIRE -80 -848 -496 -848
WIRE 160 -848 0 -848
WIRE -208 -832 -208 -1056
WIRE -80 -832 -208 -832
WIRE -64 -784 -64 -816
WIRE -64 -656 -64 -688
WIRE -592 -640 -592 -1088
WIRE -80 -640 -592 -640
WIRE -400 -624 -400 -1296
WIRE -80 -624 -400 -624
WIRE 160 -624 0 -624
WIRE -304 -608 -304 -1776
WIRE -80 -608 -304 -608
WIRE -64 -560 -64 -592
WIRE -64 -432 -64 -464
WIRE -688 -416 -688 -864
WIRE -80 -416 -688 -416
WIRE -400 -400 -400 -624
WIRE -80 -400 -400 -400
WIRE 160 -400 0 -400
WIRE -304 -384 -304 -608
WIRE -80 -384 -304 -384
WIRE -64 -336 -64 -368
WIRE -64 -208 -64 -240
WIRE -592 -192 -592 -640
WIRE -80 -192 -592 -192
WIRE -496 -176 -496 -848
WIRE -80 -176 -496 -176
WIRE 160 -176 0 -176
WIRE -304 -160 -304 -384
WIRE -80 -160 -304 -160
WIRE -64 -112 -64 -144
WIRE -64 16 -64 -16
WIRE -688 32 -688 -416
WIRE -80 32 -688 32
WIRE -496 48 -496 -176
WIRE -80 48 -496 48
WIRE 160 48 0 48
WIRE -304 64 -304 -160
WIRE -80 64 -304 64
WIRE -688 112 -688 32
WIRE -592 112 -592 -192
WIRE -496 112 -496 48
WIRE -400 112 -400 -400
WIRE -304 112 -304 64
WIRE -208 112 -208 -832
WIRE -64 112 -64 80
FLAG -640 -1712 Vss
FLAG -544 -1712 Vdd
FLAG -592 -1808 z
FLAG 160 -1520 D0
FLAG -64 -1456 Vss
FLAG -64 -1584 Vdd
FLAG -448 -1712 Vss
FLAG -352 -1712 Vdd
FLAG -400 -1808 y
FLAG -256 -1712 Vss
FLAG -160 -1712 Vdd
FLAG -208 -1808 x
FLAG 160 -1296 D1
FLAG -64 -1232 Vss
FLAG -64 -1360 Vdd
FLAG 160 -1072 D2
FLAG -64 -1008 Vss
FLAG -64 -1136 Vdd
FLAG 160 -848 D3
FLAG -64 -784 Vss
FLAG -64 -912 Vdd
FLAG 160 -624 D4
FLAG -64 -560 Vss
FLAG -64 -688 Vdd
FLAG 160 -400 D5
FLAG -64 -336 Vss
FLAG -64 -464 Vdd
FLAG 160 -176 D6
FLAG -64 -112 Vss
FLAG -64 -240 Vdd
FLAG 160 48 D7
FLAG -64 112 Vss
FLAG -64 -16 Vdd
SYMBOL not -624 -1744 R90
SYMATTR InstName U3
SYMBOL not -432 -1744 R90
SYMATTR InstName U1
SYMBOL not -240 -1744 R90
SYMATTR InstName U2
SYMBOL and3 -80 -1488 R0
SYMATTR InstName U4
SYMBOL and3 -80 -1264 R0
SYMATTR InstName U5
SYMBOL and3 -80 -1040 R0
SYMATTR InstName U6
SYMBOL and3 -80 -816 R0
SYMATTR InstName U7
SYMBOL and3 -80 -592 R0
SYMATTR InstName U8
SYMBOL and3 -80 -368 R0
SYMATTR InstName U9
SYMBOL and3 -80 -144 R0
SYMATTR InstName U10
SYMBOL and3 -80 80 R0
SYMATTR InstName U11
