Version 4
SHEET 1 880 680
WIRE -560 -416 -560 -448
WIRE -384 -416 -384 -448
WIRE -208 -416 -208 -448
WIRE -32 -416 -32 -448
WIRE -560 -304 -560 -336
WIRE -384 -304 -384 -336
WIRE -208 -304 -208 -336
WIRE -32 -304 -32 -336
WIRE 48 -192 48 -224
WIRE 160 -176 80 -176
WIRE 16 -160 -64 -160
WIRE 160 -160 80 -160
WIRE 160 -144 80 -144
WIRE 160 -128 80 -128
WIRE 16 -112 -64 -112
WIRE 160 -96 80 -96
WIRE 160 -80 80 -80
WIRE 16 -64 -64 -64
WIRE 160 -64 80 -64
WIRE 160 -48 80 -48
WIRE 48 32 48 -32
FLAG -64 -160 A
FLAG 48 -224 Vdd
FLAG 48 32 0
FLAG -560 -304 0
FLAG -560 -448 Vdd
FLAG -384 -304 0
FLAG -384 -448 A
FLAG -64 -112 B
FLAG -208 -304 0
FLAG -208 -448 B
FLAG -64 -64 C
FLAG -32 -304 0
FLAG -32 -448 C
FLAG 160 -48 D7
FLAG 160 -64 D6
FLAG 160 -80 D5
FLAG 160 -96 D4
FLAG 160 -128 D3
FLAG 160 -144 D2
FLAG 160 -160 D1
FLAG 160 -176 D0
SYMBOL voltage -560 -432 R0
WINDOW 123 0 0 Left 0
WINDOW 39 0 0 Left 0
SYMATTR InstName V1
SYMATTR Value 5V
SYMBOL voltage -384 -432 R0
WINDOW 123 0 0 Left 0
WINDOW 39 0 0 Left 0
WINDOW 3 -82 -86 Left 2
SYMATTR Value PULSE(0 5 0 5n 5n 20m 40m)
SYMATTR InstName V2
SYMBOL voltage -208 -432 R0
WINDOW 123 0 0 Left 0
WINDOW 39 0 0 Left 0
WINDOW 3 -158 227 Left 2
SYMATTR Value PULSE(0 5 0 5n 5n 40m 80m)
SYMATTR InstName V3
SYMBOL 3x8 16 -32 R0
SYMATTR InstName U1
SYMBOL voltage -32 -432 R0
WINDOW 123 0 0 Left 0
WINDOW 39 0 0 Left 0
WINDOW 3 -79 -87 Left 2
SYMATTR Value PULSE(0 5 0 5n 5n 10m 20m)
SYMATTR InstName V4
TEXT -592 -256 Left 2 ;Power
TEXT -408 -248 Left 2 ;A
TEXT -608 40 Left 2 !.tran 160m
TEXT -232 -248 Left 2 ;B
TEXT 304 -488 Left 2 ;A B C  | D0 D1 D2 D3 D4 D5 D6 D7\n---------------------------------\n0 0  0 | 1 0 0 0 0 0 0 0\n0 0  1 | 0 1 0 0 0 0 0 0\n0 1  0 | 0 0 1 0 0 0 0 0 \n0 1  1 | 0 0 0 1 0 0 0 0\n1 0  0 | 0 0 0 0 1 0 0 0 \n1 0  1 | 0 0 0 0 0 1 0 0\n1 1  0 | 0 0 0 0 0 0 1 0\n1 1  1 | 0 0 0 0 0 0 0 1
TEXT -56 -248 Left 2 ;B
RECTANGLE Normal -496 -496 -608 -224 2
RECTANGLE Normal -320 -496 -464 -224 2
RECTANGLE Normal -144 -496 -288 -224 2
RECTANGLE Normal 32 -496 -112 -224 2
