Version 4
SHEET 1 880 680
WIRE -272 -64 -272 -80
WIRE -160 -64 -160 -80
WIRE -288 -48 -352 -48
WIRE -208 -32 -240 -32
WIRE -32 -32 -112 -32
WIRE -288 -16 -352 -16
WIRE -272 16 -272 0
WIRE -160 16 -160 0
FLAG -32 -32 Y
FLAG -352 -16 B
FLAG -352 -48 A
FLAG -160 -80 Vdd
FLAG -160 16 Vss
FLAG -272 -80 Vdd
FLAG -272 16 Vss
SYMBOL xor -304 0 R0
SYMATTR InstName X1
SYMBOL not -192 0 R0
SYMATTR InstName X2
