Version 4
SHEET 1 880 680
WIRE -544 -352 -592 -352
WIRE -336 -352 -544 -352
WIRE -288 -320 -288 -336
WIRE -304 -304 -368 -304
WIRE -112 -288 -224 -288
WIRE -544 -272 -544 -352
WIRE -528 -272 -544 -272
WIRE -304 -272 -432 -272
WIRE -288 -240 -288 -256
WIRE -16 -208 -16 -224
WIRE -112 -192 -112 -288
WIRE -32 -192 -112 -192
WIRE 96 -176 48 -176
WIRE 128 -176 96 -176
WIRE -32 -160 -112 -160
WIRE 96 -160 96 -176
WIRE -544 -144 -592 -144
WIRE -368 -144 -368 -304
WIRE -368 -144 -544 -144
WIRE -16 -128 -16 -144
WIRE -288 -112 -288 -128
WIRE -336 -96 -336 -352
WIRE -304 -96 -336 -96
WIRE -112 -80 -112 -160
WIRE -112 -80 -224 -80
WIRE 96 -80 96 -96
WIRE -544 -64 -544 -144
WIRE -528 -64 -544 -64
WIRE -304 -64 -432 -64
WIRE -288 -32 -288 -48
FLAG 128 -176 Y
FLAG -592 -144 B
FLAG -592 -352 A
FLAG -480 -96 Vdd
FLAG -480 -304 Vdd
FLAG -480 -32 Vss
FLAG -480 -240 Vss
FLAG -16 -224 Vdd
FLAG -16 -128 Vss
FLAG -288 -128 Vdd
FLAG -288 -32 Vss
FLAG -288 -336 Vdd
FLAG -288 -240 Vss
FLAG 96 -80 Vss
SYMBOL nand -304 -256 R0
SYMATTR InstName X1
SYMBOL nand -304 -48 R0
SYMATTR InstName X2
SYMBOL nand -32 -144 R0
SYMATTR InstName X3
SYMBOL not -512 -240 R0
SYMATTR InstName X4
SYMBOL not -512 -32 R0
SYMATTR InstName X5
SYMBOL cap 80 -160 R0
SYMATTR InstName C1
SYMATTR Value {C}
TEXT 176 -272 Left 2 !.param C 10p
