Version 4
SHEET 1 880 680
WIRE 48 -656 48 -672
WIRE -752 -640 -768 -640
WIRE -528 -640 -752 -640
WIRE 32 -640 -528 -640
WIRE 240 -624 80 -624
WIRE -448 -608 -448 -624
WIRE 32 -608 -48 -608
WIRE -752 -576 -768 -576
WIRE -560 -576 -752 -576
WIRE -496 -576 -560 -576
WIRE -320 -576 -400 -576
WIRE 48 -576 48 -592
WIRE -256 -560 -256 -576
WIRE -320 -544 -320 -576
WIRE -272 -544 -320 -544
WIRE -448 -528 -448 -544
WIRE -48 -528 -48 -608
WIRE -48 -528 -192 -528
WIRE -272 -512 -320 -512
WIRE -752 -480 -768 -480
WIRE -640 -480 -752 -480
WIRE -320 -480 -320 -512
WIRE -320 -480 -640 -480
WIRE -256 -480 -256 -496
WIRE -448 -400 -448 -416
WIRE -528 -384 -528 -640
WIRE -464 -384 -528 -384
WIRE -176 -368 -416 -368
WIRE 240 -368 -176 -368
WIRE -560 -352 -560 -576
WIRE -464 -352 -560 -352
WIRE -448 -320 -448 -336
WIRE -64 -176 -64 -192
WIRE -176 -160 -176 -368
WIRE -80 -160 -176 -160
WIRE -640 -144 -640 -480
WIRE -80 -144 -640 -144
WIRE 240 -144 -32 -144
WIRE -752 -128 -768 -128
WIRE -80 -128 -752 -128
WIRE -64 -96 -64 -112
FLAG 48 -576 Vss
FLAG 48 -672 Vdd
FLAG -752 -128 D0
FLAG -752 -480 D1
FLAG -752 -576 D2
FLAG -256 -480 Vss
FLAG -256 -576 Vdd
FLAG 240 -368 O1
FLAG 240 -624 O0
FLAG -752 -640 D3
FLAG -448 -320 Vss
FLAG -448 -416 Vdd
FLAG -64 -96 Vss
FLAG -64 -192 Vdd
FLAG -448 -528 Vss
FLAG -448 -624 Vdd
FLAG 240 -144 V
SYMBOL or 16 -592 R0
SYMATTR InstName U8
SYMBOL not -480 -544 R0
SYMATTR InstName U1
SYMBOL and -272 -496 R0
SYMATTR InstName U2
SYMBOL or -480 -336 R0
SYMATTR InstName U3
SYMBOL or3 -96 -112 R0
SYMATTR InstName U4
