Version 4
SHEET 1 880 680
WIRE -208 -384 -208 -400
WIRE -384 -368 -384 -576
WIRE -224 -368 -384 -368
WIRE -16 -352 -176 -352
WIRE -288 -336 -288 -576
WIRE -224 -336 -288 -336
WIRE -208 -304 -208 -320
WIRE -208 -176 -208 -192
WIRE -336 -160 -336 -576
WIRE -224 -160 -336 -160
WIRE -16 -144 -176 -144
WIRE -288 -128 -288 -336
WIRE -224 -128 -288 -128
WIRE -208 -96 -208 -112
WIRE -432 48 -432 -576
WIRE -384 48 -384 -368
WIRE -336 48 -336 -160
WIRE -288 48 -288 -128
FLAG -208 -304 Vss
FLAG -208 -400 Vdd
FLAG -432 -576 D0
FLAG -384 -576 D1
FLAG -336 -576 D2
FLAG -208 -96 Vss
FLAG -208 -192 Vdd
FLAG -16 -144 O1
FLAG -16 -352 O0
FLAG -288 -576 D3
SYMBOL or -240 -320 R0
SYMATTR InstName U8
SYMBOL or -240 -112 R0
SYMATTR InstName U9
