Version 4
SHEET 1 880 680
WIRE -384 -736 -384 -768
WIRE -208 -736 -208 -768
WIRE -384 -624 -384 -656
WIRE -208 -624 -208 -656
WIRE -560 -416 -560 -448
WIRE -384 -416 -384 -448
WIRE -208 -416 -208 -448
WIRE -560 -304 -560 -336
WIRE -384 -304 -384 -336
WIRE -208 -304 -208 -336
WIRE -128 -144 -128 -192
WIRE -160 -128 -240 -128
WIRE -160 -112 -240 -112
WIRE -16 -112 -96 -112
WIRE -160 -96 -240 -96
WIRE -16 -96 -96 -96
WIRE -160 -80 -240 -80
WIRE -128 0 -128 -64
FLAG -240 -128 D0
FLAG -128 -192 Vdd
FLAG -128 0 0
FLAG -560 -304 0
FLAG -560 -448 Vdd
FLAG -384 -304 0
FLAG -384 -448 D2
FLAG -240 -112 D1
FLAG -208 -304 0
FLAG -208 -448 D3
FLAG -240 -80 D3
FLAG -384 -624 0
FLAG -384 -768 D0
FLAG -208 -624 0
FLAG -208 -768 D1
FLAG -240 -96 D2
SYMBOL voltage -560 -432 R0
WINDOW 123 0 0 Left 0
WINDOW 39 0 0 Left 0
SYMATTR InstName V1
SYMATTR Value 5V
SYMBOL voltage -384 -432 R0
WINDOW 123 0 0 Left 0
WINDOW 39 0 0 Left 0
WINDOW 3 -82 -86 Left 2
SYMATTR Value PULSE(0 5 0 5n 5n 40m 80m)
SYMATTR InstName V2
SYMBOL voltage -208 -432 R0
WINDOW 123 0 0 Left 0
WINDOW 39 0 0 Left 0
SYMATTR InstName V3
SYMATTR Value PULSE(0 5 0 5n 5n 80m 160m)
SYMBOL 4x2 -160 -64 R0
SYMATTR InstName U2
SYMBOL voltage -384 -752 R0
WINDOW 123 0 0 Left 0
WINDOW 39 0 0 Left 0
WINDOW 3 -82 -86 Left 2
SYMATTR Value PULSE(0 5 0 5n 5n 10m 20m)
SYMATTR InstName V4
SYMBOL voltage -208 -752 R0
WINDOW 123 0 0 Left 0
WINDOW 39 0 0 Left 0
SYMATTR InstName V5
SYMATTR Value PULSE(0 5 0 5n 5n 20m 40m)
TEXT -592 -256 Left 2 ;Power
TEXT -408 -248 Left 2 ;D2
TEXT -608 40 Left 2 !.tran 320m
TEXT -232 -248 Left 2 ;D3
TEXT -408 -568 Left 2 ;D0
TEXT -232 -568 Left 2 ;D1
RECTANGLE Normal -496 -496 -608 -224 2
RECTANGLE Normal -320 -496 -464 -224 2
RECTANGLE Normal -144 -496 -288 -224 2
RECTANGLE Normal -320 -816 -464 -544 2
RECTANGLE Normal -144 -816 -288 -544 2
