Version 4
SHEET 1 880 680
WIRE -176 80 -176 64
WIRE -48 80 -48 64
WIRE -224 112 -240 112
WIRE -112 112 -128 112
WIRE -96 112 -112 112
WIRE 16 112 0 112
WIRE -176 160 -176 144
WIRE -48 160 -48 144
WIRE -112 224 -112 112
WIRE -112 304 -112 288
FLAG 16 112 Y
FLAG -240 112 in
FLAG -48 160 Vss
FLAG -48 64 Vdd
FLAG -176 160 Vss
FLAG -176 64 Vdd
FLAG -112 304 Vss
SYMBOL not -208 144 R0
SYMATTR InstName X1
SYMBOL not -80 144 R0
SYMATTR InstName X2
SYMBOL cap -128 224 R0
SYMATTR InstName C1
SYMATTR Value {C}
TEXT -360 344 Left 2 !.param C 10p
