Version 4
SHEET 1 880 680
WIRE 64 -192 -464 -192
WIRE -416 -112 -416 -128
WIRE -464 -96 -464 -192
WIRE -432 -96 -464 -96
WIRE -320 -80 -352 -80
WIRE -432 -64 -672 -64
WIRE -80 -32 -80 -48
WIRE -416 -16 -416 -48
WIRE -416 -16 -448 -16
WIRE -272 -16 -272 -32
WIRE -320 0 -320 -80
WIRE -288 0 -320 0
WIRE -144 16 -208 16
WIRE 16 16 -16 16
WIRE 128 16 16 16
WIRE -288 32 -320 32
WIRE -416 48 -448 48
WIRE -416 64 -416 48
WIRE -624 80 -672 80
WIRE -432 80 -528 80
WIRE -272 80 -272 48
WIRE -144 80 -208 80
WIRE 64 80 64 -192
WIRE 64 80 0 80
WIRE 128 80 64 80
WIRE -320 96 -320 32
WIRE -320 96 -352 96
WIRE -432 112 -464 112
WIRE -416 160 -416 128
WIRE -80 160 -80 128
WIRE -464 208 -464 112
WIRE 16 208 16 16
WIRE 16 208 -464 208
FLAG -672 -64 J
FLAG -208 80 Clk
FLAG 128 16 Q
FLAG 128 80 _Q
FLAG -672 80 K
FLAG -80 -48 Vdd
FLAG -416 -128 Vdd
FLAG -272 -32 Vdd
FLAG -448 48 Vdd
FLAG -576 48 Vdd
FLAG -80 160 Vss
FLAG -416 160 Vss
FLAG -576 112 Vss
FLAG -272 80 Vss
FLAG -448 -16 Vss
SYMBOL nand -432 128 R0
SYMATTR InstName X1
SYMBOL nand -432 -48 R0
SYMATTR InstName X2
SYMBOL nand -288 48 R0
SYMATTR InstName X3
SYMBOL not -608 112 R0
SYMATTR InstName X4
SYMBOL dff_p -144 128 R0
SYMATTR InstName X5
