Version 4
SHEET 1 880 680
WIRE -80 -32 -80 -48
WIRE -176 0 -224 0
WIRE -144 0 -176 0
WIRE 128 16 -16 16
WIRE -144 48 -224 48
WIRE 128 80 0 80
WIRE -176 96 -176 0
WIRE -144 96 -176 96
WIRE -80 160 -80 128
FLAG -224 0 T
FLAG -224 48 Clk
FLAG 128 16 Q
FLAG 128 80 _Q
FLAG -80 -48 Vdd
FLAG -80 160 Vss
SYMBOL jkff_p -144 128 R0
SYMATTR InstName X1
